Voltage_files_exported/IEEE13Nodeckt_VLN_Node_CasoBase.Txt

LINE-GROUND and LINE-LINE VOLTAGES BY BUS & NODE

Bus       Node    VLN (kV)   Angle      pu     Base kV    Node-Node   VLL (kV)  Angle      pu

SOURCEBUS 1       66.396 /_   30.0         1   115.000        1-2        115 /_   60.0         1
   -      2       66.397 /_  -90.0         1   115.000        2-3        115 /_  -60.0         1
   -      3       66.394 /_  150.0   0.99999   115.000        3-1        115 /_  180.0   0.99999
650 ..... 1       2.4017 /_    0.0   0.99996     4.160        1-2       4.16 /_   30.0   0.99999
   -      2       2.4018 /_ -120.0         1     4.160        2-3       4.16 /_  -90.0         1
   -      3       2.4017 /_  120.0   0.99998     4.160        3-1     4.1598 /_  150.0   0.99996
RG60 .... 1       2.5216 /_    0.0    1.0499     4.160        1-2     4.3417 /_   29.8    1.0437
   -      2       2.4917 /_ -120.0    1.0375     4.160        2-3     4.3548 /_  -89.7    1.0468
   -      3       2.5366 /_  120.0    1.0561     4.160        3-1     4.3804 /_  149.9     1.053
633 ..... 1       2.4597 /_   -2.0    1.0241     4.160        1-2     4.2681 /_   28.5     1.026
   -      2       2.4864 /_ -121.3    1.0353     4.160        2-3     4.2842 /_  -91.9    1.0299
   -      3       2.4426 /_  118.0     1.017     4.160        3-1     4.2452 /_  148.1    1.0205
634 ..... 1      0.28859 /_   -1.5    1.0413     0.480        1-2    0.50019 /_   28.9    1.0421
   -      2      0.29063 /_ -120.9    1.0487     0.480        2-3    0.50086 /_  -91.6    1.0434
   -      3      0.28564 /_  118.3    1.0307     0.480        3-1    0.49692 /_  148.6    1.0352
671 ..... 1       2.3793 /_   -4.8   0.99062     4.160        1-2     4.1717 /_   27.5    1.0028
   -      2       2.5104 /_ -121.9    1.0452     4.160        2-3     4.2438 /_  -93.9    1.0201
   -      3       2.3449 /_  116.2   0.97633     4.160        3-1     4.1133 /_  145.9   0.98878
645 ..... 2        2.461 /_ -121.5    1.0246     4.160        2-3      4.249 /_  -91.9    1.0214
   -      3       2.4333 /_  118.0    1.0131     4.160
646 ..... 2       2.4568 /_ -121.6    1.0229     4.160        2-3     4.2386 /_  -91.9    1.0189
   -      3       2.4284 /_  118.1    1.0111     4.160
692 ..... 1       2.3793 /_   -4.8   0.99062     4.160        1-2     4.1717 /_   27.5    1.0028
   -      2       2.5104 /_ -121.9    1.0452     4.160        2-3     4.2438 /_  -93.9    1.0201
   -      3       2.3449 /_  116.2   0.97633     4.160        3-1     4.1133 /_  145.9   0.98878
675 ..... 1       2.3638 /_   -5.1   0.98417     4.160        1-2      4.162 /_   27.5    1.0005
   -      2        2.516 /_ -122.1    1.0476     4.160        2-3     4.2409 /_  -94.1    1.0195
   -      3       2.3404 /_  116.2   0.97445     4.160        3-1     4.1011 /_  145.7   0.98585
611 ..... 3       2.3353 /_  116.0   0.97231     4.160
652 ..... 1       2.3612 /_   -4.8   0.98309     4.160
670 ..... 1       2.4299 /_   -3.0    1.0117     4.160        1-2       4.23 /_   28.2    1.0168
   -      2       2.4901 /_ -121.5    1.0368     4.160        2-3     4.2626 /_  -92.7    1.0247
   -      3       2.4038 /_  117.3    1.0008     4.160        3-1     4.1922 /_  147.4    1.0077
632 ..... 1       2.4546 /_   -2.0     1.022     4.160        1-2     4.2604 /_   28.5    1.0241
   -      2       2.4831 /_ -121.3    1.0339     4.160        2-3     4.2767 /_  -92.0    1.0281
   -      3        2.438 /_  118.0    1.0151     4.160        3-1     4.2377 /_  148.1    1.0187
680 ..... 1       2.3793 /_   -4.8   0.99062     4.160        1-2     4.1717 /_   27.5    1.0028
   -      2       2.5104 /_ -121.9    1.0452     4.160        2-3     4.2438 /_  -93.9    1.0201
   -      3       2.3449 /_  116.2   0.97633     4.160        3-1     4.1133 /_  145.9   0.98878
684 ..... 1       2.3746 /_   -4.9   0.98868     4.160
   -      3       2.3401 /_  116.1   0.97432     4.160        3-1     4.1035 /_  145.9   0.98641
